IEEE data/013_bus/bpa/013bpa.DAT
(POWERFLOW,CASEID=EMS,PROJECT=TEST)
/P_INPUT_LIST,FULL\
/P_OUTPUT_LIST,FULL\
/P_ANALYSIS_RPT,LEVEL=4\
/NETWORK_DATA\
.234567890*234567890*234567890*234567890*234567890*234567890*234567890*234567890
B     BUS-1    100 1                                                                                                                                                                                                                                                                                       
B     BUS-2    100 1                                                                                                                                                                                                                                                                                       
B     BUS-3    100 1                                                                                                                                                                                                                                                                                       
BQ    BUS-4    100 1                           99990-99991000                                                                                                                                                                                                                                              
BQ    BUS-5    100 150.  30.              500. 99990-99991037                                                                                                                                                                                                                                              
B     BUS-6    100 1                                                                                                                                                                                                                                                                                       
BQ    BUS-7    100 1                           99990-99991100                                                                                                                                                                                                                                              
BQ    BUS-8    100 1                      500. 99990-99990943                                                                                                                                                                                                                                              
BQ    BUS-9    100 1                           99990-99991100                                                                                                                                                                                                                                              
B     BUS-10   100 150.  30.                                                                                                                                                                                                                                                                               
B     BUS-11   100 150.  32.                                                                                                                                                                                                                                                                               
B     BUS-12   100 1                                                                                                                                                                                                                                                                                       
BS    BUS-13   100 11650.560.             830.199990-99991000                                                                                                                                                                                                                                              
-999
.234567890*234567890*234567890*234567890*234567890*234567890*234567890*234567890
.234567890*234567890*234567890*234567890*234567890*234567890*234567890*234567890
L     BUS-2    100 BUS-3    100       .00074.0143       218000                                                                                                                                                                                                                                             
L     BUS-1    100 BUS-5    100       .00481.0459       123000                                                                                                                                                                                                                                             
L     BUS-6    100 BUS-5    100       .0009 .0108       .08                                                                                                                                                                                                                                                
L     BUS-2    100 BUS-7    100       .00121.0233       356000                                                                                                                                                                                                                                             
L     BUS-7    100 BUS-6    100             .015                                                                                                                                                                                                                                                           
L     BUS-9    100 BUS-8    100       .00105.0202       310000                                                                                                                                                                                                                                             
L     BUS-10   100 BUS-9    100             -.015                                                                                                                                                                                                                                                          
L     BUS-11   100 BUS-10   100       .00086.01665      254000                                                                                                                                                                                                                                             
L     BUS-12   100 BUS-11   100       .00075.01465      224000                                                                                                                                                                                                                                             
L     BUS-7    100 BUS-12   100             -.015                                                                                                                                                                                                                                                          
T     BUS-1    100 BUS-13   100       .0004 .0085             100. 10500                                                                                                                                                                                                                                   
T     BUS-2    100 BUS-13   100       .0004 .00947            100. 11000                                                                                                                                                                                                                                   
T     BUS-3    100 BUS-4    100       .0004 .00947            100. 11000                                                                                                                                                                                                                                   
.234567890*234567890*234567890*234567890*234567890*234567890*234567890*234567890
(END)